Version 4
SHEET 1 1076 680
WIRE -96 -160 -96 -208
WIRE 400 -160 400 -176
WIRE -640 -64 -768 -64
WIRE -512 -64 -576 -64
WIRE -336 -64 -512 -64
WIRE -208 -64 -336 -64
WIRE -96 -64 -96 -96
WIRE -96 -64 -208 -64
WIRE 64 -64 -96 -64
WIRE 80 -64 64 -64
WIRE 400 -64 400 -96
WIRE 400 -64 368 -64
WIRE 496 -64 400 -64
WIRE 608 -64 576 -64
WIRE 624 -64 608 -64
WIRE 720 -64 704 -64
WIRE 784 -64 720 -64
WIRE 896 -64 784 -64
WIRE -768 -48 -768 -64
WIRE -336 -48 -336 -64
WIRE 400 -48 400 -64
WIRE 784 -48 784 -64
WIRE 896 -48 896 -64
WIRE -512 -32 -512 -64
WIRE 80 32 48 32
WIRE 400 32 400 16
WIRE 400 32 368 32
WIRE 512 32 400 32
WIRE 720 32 720 -64
WIRE 720 32 576 32
WIRE 784 32 784 16
WIRE -768 48 -768 32
WIRE -336 48 -336 32
WIRE 48 48 48 32
WIRE 48 48 -336 48
WIRE 896 48 896 32
WIRE -512 64 -512 32
WIRE -336 80 -336 48
WIRE 64 128 64 -64
WIRE 80 128 64 128
WIRE 608 128 608 -64
WIRE 608 128 368 128
WIRE -336 176 -336 160
WIRE -208 224 -208 -64
WIRE -160 224 -208 224
WIRE -64 224 -96 224
WIRE 80 224 16 224
WIRE 528 224 368 224
WIRE 720 224 720 32
WIRE 720 224 528 224
WIRE 720 256 720 224
WIRE 528 272 528 224
WIRE -208 320 -208 224
WIRE -160 320 -208 320
WIRE -64 320 -96 320
WIRE 80 320 16 320
WIRE 720 352 720 320
WIRE 80 416 64 416
WIRE 400 416 368 416
WIRE 528 416 528 352
WIRE 528 416 480 416
WIRE 528 448 528 416
WIRE 224 480 224 464
WIRE 528 576 528 528
FLAG 224 480 0
FLAG 64 416 0
FLAG -768 48 0
FLAG 784 32 0
FLAG -768 -64 IN
FLAG 784 -64 OUT
FLAG 400 -176 0
FLAG 528 576 0
FLAG -512 64 0
FLAG 896 48 0
FLAG 720 352 0
FLAG -336 176 0
FLAG -96 -208 0
SYMBOL PowerProducts\\LT3652 224 176 R0
SYMATTR InstName U1
SYMBOL voltage -768 -64 R0
WINDOW 123 0 0 Left 0
WINDOW 39 -129 99 Left 2
SYMATTR SpiceLine Rser=34.2
SYMATTR InstName V1
SYMATTR Value 12
SYMBOL ind 480 -48 R270
WINDOW 0 32 56 VTop 2
WINDOW 3 5 70 VBottom 2
SYMATTR InstName L1
SYMATTR Value 20µ
SYMATTR SpiceLine Ipk=2.6 Rser=50m Rpar=10K
SYMBOL res 608 -48 R270
WINDOW 0 32 56 VTop 2
WINDOW 3 0 56 VBottom 2
SYMATTR InstName R1
SYMATTR Value 200m
SYMBOL cap 768 -48 R0
SYMATTR InstName C1
SYMATTR Value .2m
SYMBOL cap 384 -48 R0
SYMATTR InstName C2
SYMATTR Value 1µ
SYMBOL schottky 576 16 R90
WINDOW 0 0 32 VBottom 2
WINDOW 3 32 32 VTop 2
SYMATTR InstName D1
SYMATTR Value 1N5817
SYMATTR Description Diode
SYMATTR Type diode
SYMBOL schottky 384 -160 R0
WINDOW 3 36 42 Left 2
WINDOW 0 40 15 Left 2
SYMATTR Value MBRS340
SYMATTR InstName D2
SYMATTR Description Diode
SYMATTR Type diode
SYMBOL res 512 256 R0
SYMATTR InstName R2
SYMATTR Value 410k
SYMBOL res 512 432 R0
SYMATTR InstName R3
SYMATTR Value 330k
SYMBOL LED -160 240 R270
WINDOW 0 72 32 VTop 2
WINDOW 3 119 23 VBottom 2
SYMATTR InstName D3
SYMBOL LED -160 336 R270
WINDOW 0 -50 40 VTop 2
WINDOW 3 0 32 VBottom 2
SYMATTR InstName D4
SYMBOL res 32 208 R90
WINDOW 0 0 56 VBottom 2
WINDOW 3 32 56 VTop 2
SYMATTR InstName R4
SYMATTR Value 3k
SYMBOL res 32 304 R90
WINDOW 0 0 56 VBottom 2
WINDOW 3 32 56 VTop 2
SYMATTR InstName R5
SYMATTR Value 3k
SYMBOL cap -528 -32 R0
SYMATTR InstName C3
SYMATTR Value 10µ
SYMBOL current 896 -48 R0
WINDOW 123 0 0 Left 0
WINDOW 39 0 0 Left 0
SYMATTR InstName I1
SYMATTR Value 0.018
SYMBOL cap 704 256 R0
SYMATTR InstName C4
SYMATTR Value 10µ
SYMBOL res 496 400 R90
WINDOW 0 0 56 VBottom 2
WINDOW 3 32 56 VTop 2
SYMATTR InstName R6
SYMATTR Value 67.2k
SYMBOL schottky -640 -48 R270
WINDOW 0 32 32 VTop 2
WINDOW 3 0 32 VBottom 2
SYMATTR InstName D5
SYMATTR Value 1N5817
SYMATTR Description Diode
SYMATTR Type diode
SYMBOL res -352 -64 R0
SYMATTR InstName R7
SYMATTR Value 270k
SYMBOL res -352 64 R0
SYMATTR InstName R8
SYMATTR Value 100k
SYMBOL cap -112 -160 R0
SYMATTR InstName C5
SYMATTR Value 1µ
TEXT -1024 -24 Left 2 !.tran 75m startup
TEXT -864 -136 Left 2 ;Solar Panel Input\n12V 4.2W 350mA
TEXT -384 48 Right 1 ;Decoupling Cap
TEXT 536 -128 Left 2 ;Max Charge Current 0.5A
TEXT 920 64 Left 2 ;Arduino Load
TEXT 728 336 Left 1 ;Decoupling Cap
TEXT 32 -80 Right 1 ;Decoupling Cap
